Version 4
SHEET 1 952 788
WIRE -464 -336 -464 -384
WIRE -320 -336 -320 -384
WIRE -464 -192 -464 -256
WIRE -320 -192 -320 -256
WIRE 96 -144 -208 -144
WIRE 736 -144 304 -144
WIRE -208 32 -208 -144
WIRE 304 32 304 -144
WIRE 736 80 736 -144
WIRE 736 80 560 80
WIRE 96 96 96 -144
WIRE 96 96 -48 96
WIRE 640 128 640 32
WIRE 32 144 32 16
WIRE 560 144 560 80
WIRE 608 144 560 144
WIRE -48 160 -48 96
WIRE 0 160 -48 160
WIRE 736 160 736 80
WIRE 736 160 672 160
WIRE 880 160 736 160
WIRE 96 176 96 96
WIRE 96 176 64 176
WIRE 128 176 96 176
WIRE 304 176 304 96
WIRE 304 176 208 176
WIRE 416 176 304 176
WIRE 560 176 496 176
WIRE 608 176 560 176
WIRE -320 192 -384 192
WIRE -208 192 -208 96
WIRE -208 192 -240 192
WIRE -176 192 -208 192
WIRE -48 192 -96 192
WIRE 0 192 -48 192
WIRE -48 272 -48 192
WIRE 560 272 560 176
WIRE 32 288 32 208
WIRE 640 288 640 192
WIRE -480 304 -480 256
WIRE -48 400 -48 336
WIRE 560 400 560 336
WIRE -480 448 -480 384
WIRE 0 512 -192 512
WIRE -80 560 -80 480
WIRE -192 576 -192 512
WIRE -112 576 -192 576
WIRE 0 592 0 512
WIRE 0 592 -48 592
WIRE -112 608 -256 608
WIRE -80 720 -80 624
FLAG 560 400 0
FLAG -48 400 0
FLAG 880 160 out
FLAG -384 192 in
FLAG -480 448 0
FLAG -480 256 in
FLAG -464 -192 0
FLAG -464 -384 v+
FLAG -320 -192 v-
FLAG -320 -384 0
FLAG 32 288 v-
FLAG -256 608 in
FLAG -80 480 v+
FLAG -80 720 v-
FLAG 0 592 cmp
FLAG 640 288 v-
FLAG 32 16 v+
FLAG 640 32 v+
SYMBOL Opamps\\UniversalOpamp2 32 176 R0
SYMATTR InstName U1
SYMBOL res 224 160 R90
WINDOW 0 0 56 VBottom 2
WINDOW 3 32 56 VTop 2
SYMATTR InstName R1
SYMATTR Value 9.31k
SYMBOL res 512 160 R90
WINDOW 0 0 56 VBottom 2
WINDOW 3 32 56 VTop 2
SYMATTR InstName R2
SYMATTR Value 21k
SYMBOL res -80 176 R90
WINDOW 0 0 56 VBottom 2
WINDOW 3 32 56 VTop 2
SYMATTR InstName R3
SYMATTR Value 1.91k
SYMBOL res -224 176 R90
WINDOW 0 0 56 VBottom 2
WINDOW 3 32 56 VTop 2
SYMATTR InstName R4
SYMATTR Value 806
SYMBOL cap -64 272 R0
SYMATTR InstName C1
SYMATTR Value 22n
SYMBOL cap 544 272 R0
SYMATTR InstName C2
SYMATTR Value 22n
SYMBOL cap 288 32 R0
SYMATTR InstName C3
SYMATTR Value 120n
SYMBOL cap -224 32 R0
SYMATTR InstName C4
SYMATTR Value 3.3µ
SYMBOL voltage -480 288 R0
WINDOW 123 24 124 Left 2
WINDOW 39 0 0 Left 2
SYMATTR InstName V1
SYMATTR Value SINE(0 10 60)
SYMATTR Value2 AC 1.
SYMBOL voltage -464 -352 R0
WINDOW 123 0 0 Left 2
WINDOW 39 0 0 Left 2
SYMATTR InstName V2
SYMATTR Value 12
SYMBOL voltage -320 -352 R0
WINDOW 123 0 0 Left 2
WINDOW 39 0 0 Left 2
SYMATTR InstName V3
SYMATTR Value 12
SYMBOL Opamps\\UniversalOpamp2 -80 592 R0
SYMATTR InstName U3
SYMBOL Opamps\\UniversalOpamp2 640 160 R0
SYMATTR InstName U2
TEXT 232 -256 Left 2 !.tran 100m
